Thiadiazolyl
  DSViewer          3D                             0

  7  7  0  0  0  0  0  0  0  0999 V2000
   -0.7600   -1.0150    0.0000 C   0  0  0  0  0  0  0  0  0  1
    0.5740   -0.8121    0.0000 N   0  0  0  0  0  0  0  0  0  2
   -1.2516   -1.9780   -0.0004 H   0  0  0  0  0  0  0  0  0  3
   -1.4879    0.5383    0.0000 S   0  0  0  0  0  0  0  0  0  4
   -0.0062    1.3996   -0.0002 C   0  0  0  0  0  0  0  0  0  5
    0.1398    2.4716    0.0006 H   0  0  0  0  0  0  0  0  0  6
    0.9754    0.4720   -0.0002 N   0  0  0  0  0  0  0  0  0  7
  2  1  2  0  0  0
  1  4  1  0  0  0
  4  5  1  0  0  0
  6  5  1  0  0  0
  5  7  2  0  0  0
  1  3  1  0  0  0
  2  7  1  0  0  0
M  END
