          16
 Configuration number :        7
   N   1.38635  -0.29197   0.01352
   N  -1.38633   0.29227   0.00681
   C   0.91882   0.97077  -0.01878
   C  -0.44889   1.25897  -0.02208
   C  -0.91881  -0.97095   0.00730
   C   0.44886  -1.25914   0.01058
   H   1.66107   1.76596  -0.02576
   H  -0.80712   2.28604  -0.03176
   H   0.80714  -2.28611   0.02735
   H  -1.66109  -1.76602   0.02139
   O   4.17450  -0.57938  -0.37886
   H   3.20186  -0.81182  -0.38259
   H   4.56688  -0.80173   0.51370
   O  -3.77040   0.96374  -1.49419
   H  -3.35189   1.74003  -1.96565
   H  -3.08717   0.51682  -0.91667
          10
 Configuration number :       14
   N   1.38635  -0.29197   0.01352
   N  -1.38633   0.29227   0.00681
   C   0.91882   0.97077  -0.01878
   C  -0.44889   1.25897  -0.02208
   C  -0.91881  -0.97095   0.00730
   C   0.44886  -1.25914   0.01058
   H   1.66107   1.76596  -0.02576
   H  -0.80712   2.28604  -0.03176
   H   0.80714  -2.28611   0.02735
   H  -1.66109  -1.76602   0.02139
          16
 Configuration number :       21
   N   1.38635  -0.29197   0.01352
   N  -1.38633   0.29227   0.00681
   C   0.91882   0.97077  -0.01878
   C  -0.44889   1.25897  -0.02208
   C  -0.91881  -0.97095   0.00730
   C   0.44886  -1.25914   0.01058
   H   1.66107   1.76596  -0.02576
   H  -0.80712   2.28604  -0.03176
   H   0.80714  -2.28611   0.02735
   H  -1.66109  -1.76602   0.02139
   O   4.16012   0.69863  -0.69684
   H   3.25244   0.29517  -0.81266
   H   4.58992   0.32216   0.12390
   O  -3.65844  -0.21326   1.52532
   H  -2.76631  -0.21500   1.07348
   H  -4.13198   0.64437   1.32463
          16
 Configuration number :       28
   N   1.38635  -0.29197   0.01352
   N  -1.38633   0.29227   0.00681
   C   0.91882   0.97077  -0.01878
   C  -0.44889   1.25897  -0.02208
   C  -0.91881  -0.97095   0.00730
   C   0.44886  -1.25914   0.01058
   H   1.66107   1.76596  -0.02576
   H  -0.80712   2.28604  -0.03176
   H   0.80714  -2.28611   0.02735
   H  -1.66109  -1.76602   0.02139
   O   4.04713   1.18187  -0.15040
   H   3.41692   0.51715  -0.55170
   H   4.16364   0.98508   0.82314
   O  -3.97139   0.13072   1.11181
   H  -2.97235   0.16224   1.14332
   H  -4.28900   0.49796   0.23755
          16
 Configuration number :       35
   N   1.38635  -0.29197   0.01352
   N  -1.38633   0.29227   0.00681
   C   0.91882   0.97077  -0.01878
   C  -0.44889   1.25897  -0.02208
   C  -0.91881  -0.97095   0.00730
   C   0.44886  -1.25914   0.01058
   H   1.66107   1.76596  -0.02576
   H  -0.80712   2.28604  -0.03176
   H   0.80714  -2.28611   0.02735
   H  -1.66109  -1.76602   0.02139
   O   4.37814   0.71303  -0.74033
   H   3.46285   0.46776  -1.05998
   H   4.45016   0.52622   0.23945
   O  -4.07625   0.02233  -0.49464
   H  -3.13634   0.26630  -0.25566
   H  -4.31280   0.43106  -1.37615
          13
 Configuration number :       42
   N   1.38635  -0.29197   0.01352
   N  -1.38633   0.29227   0.00681
   C   0.91882   0.97077  -0.01878
   C  -0.44889   1.25897  -0.02208
   C  -0.91881  -0.97095   0.00730
   C   0.44886  -1.25914   0.01058
   H   1.66107   1.76596  -0.02576
   H  -0.80712   2.28604  -0.03176
   H   0.80714  -2.28611   0.02735
   H  -1.66109  -1.76602   0.02139
   O  -4.23656   0.69673  -0.66913
   H  -3.25697   0.80528  -0.49977
   H  -4.44576   0.97637  -1.60620
